<?xml version="1.0" encoding="UTF-8"?>

<!-- generated on 2021-11-19 01:16:39 by Eclipse SUMO netedit Version 1.10.0
<configuration xmlns:xsi="http://www.w3.org/2001/XMLSchema-instance" xsi:noNamespaceSchemaLocation="http://sumo.dlr.de/xsd/netconvertConfiguration.xsd">

    <input>
        <sumo-net-file value="configs/thesis.net.xml"/>
    </input>

    <output>
        <output-file value="configs/thesis.net.xml"/>
    </output>

    <processing>
        <geometry.min-radius.fix.railways value="false"/>
        <geometry.max-grade.fix value="false"/>
        <offset.disable-normalization value="true"/>
        <lefthand value="false"/>
    </processing>

    <junctions>
        <no-internal-links value="true"/>
        <no-turnarounds value="true"/>
        <junctions.corner-detail value="5"/>
        <junctions.limit-turn-speed value="5.5"/>
        <rectangular-lane-cut value="false"/>
    </junctions>

    <pedestrian>
        <walkingareas value="false"/>
    </pedestrian>

    <report>
        <aggregate-warnings value="5"/>
    </report>

</configuration>
-->

<net version="1.9" junctionCornerDetail="5" limitTurnSpeed="5.50" xmlns:xsi="http://www.w3.org/2001/XMLSchema-instance" xsi:noNamespaceSchemaLocation="http://sumo.dlr.de/xsd/net_file.xsd">

    <location netOffset="100.00,0.00" convBoundary="-1003.29,-153.15,-656.33,9.89" origBoundary="-100.00,0.00,303.00,0.00" projParameter="!"/>

    <edge id="-edge7" from="node2" to="node7" priority="-1">
        <lane id="-edge7_0" index="0" speed="13.89" length="50.13" shape="-854.12,-88.12 -853.39,-49.31"/>
    </edge>
    <edge id="-gneE4" from="gneJ3" to="node3" priority="-1">
        <lane id="-gneE4_0" index="0" speed="13.89" length="54.26" shape="-790.38,-45.92 -790.79,-88.84"/>
    </edge>
    <edge id="edge0" from="node0" to="node1" priority="-1">
        <lane id="edge0_0" index="0" speed="13.89" length="84.72" shape="-1003.34,-94.04 -922.84,-94.89"/>
        <lane id="edge0_1" index="1" speed="13.89" length="84.72" shape="-1003.31,-90.84 -922.81,-91.69"/>
    </edge>
    <edge id="edge1" from="node1" to="node2" priority="-1">
        <lane id="edge1_0" index="0" speed="13.89" length="62.80" shape="-911.66,-95.15 -863.20,-96.70"/>
        <lane id="edge1_1" index="1" speed="13.89" length="62.80" shape="-911.55,-91.95 -863.10,-93.50"/>
    </edge>
    <edge id="edge10" from="node4" to="node10" priority="-1">
        <lane id="edge10_0" index="0" speed="13.89" length="61.46" shape="-723.88,-102.19 -724.95,-153.12"/>
    </edge>
    <edge id="edge11" from="node10" to="node11" priority="-1">
        <lane id="edge11_0" index="0" speed="13.89" length="67.04" shape="-723.31,-154.75 -656.29,-152.93"/>
    </edge>
    <edge id="edge2" from="node2" to="node3" priority="-1">
        <lane id="edge2_0" index="0" speed="13.89" length="66.57" shape="-848.65,-97.00 -796.33,-97.52"/>
        <lane id="edge2_1" index="1" speed="13.89" length="66.57" shape="-848.62,-93.80 -796.30,-94.32"/>
    </edge>
    <edge id="edge3" from="node3" to="node4" priority="-1">
        <lane id="edge3_0" index="0" speed="13.89" length="67.18" shape="-782.10,-97.47 -729.42,-96.62"/>
        <lane id="edge3_1" index="1" speed="13.89" length="67.18" shape="-782.15,-94.28 -729.47,-93.42"/>
    </edge>
    <edge id="edge4" from="node4" to="node5" priority="-1">
        <lane id="edge4_0" index="0" speed="13.89" length="62.29" shape="-718.12,-96.55 -659.83,-97.24"/>
        <lane id="edge4_1" index="1" speed="13.89" length="62.29" shape="-718.08,-93.35 -659.79,-94.04"/>
    </edge>
    <edge id="edge5" from="node1" to="node6" priority="-1">
        <lane id="edge5_0" index="0" speed="13.89" length="47.29" shape="-917.01,-86.25 -917.44,-45.32"/>
    </edge>
    <edge id="edge6" from="node6" to="node7" priority="-1">
        <lane id="edge6_0" index="0" speed="13.89" length="63.06" shape="-915.84,-43.70 -862.11,-43.62"/>
    </edge>
    <edge id="edge7" from="node7" to="node2" priority="-1">
        <lane id="edge7_0" index="0" speed="13.89" length="50.13" shape="-856.59,-49.24 -857.32,-88.06"/>
    </edge>
    <edge id="edge8" from="node8" to="node9" priority="-1">
        <lane id="edge8_0" index="0" speed="13.89" length="48.04" shape="-969.36,-133.49 -921.32,-133.55"/>
    </edge>
    <edge id="edge9" from="node9" to="node1" priority="-1">
        <lane id="edge9_0" index="0" speed="13.89" length="41.91" shape="-919.72,-132.05 -917.65,-100.49"/>
    </edge>
    <edge id="gneE1" from="node2" to="gneJ1" priority="-1">
        <lane id="gneE1_0" index="0" speed="13.89" length="46.88" shape="-857.81,-102.48 -859.26,-138.91"/>
    </edge>
    <edge id="gneE11" from="gneJ6" to="gneJ3" priority="-1">
        <lane id="gneE11_0" index="0" speed="13.89" length="47.22" shape="-789.95,6.60 -790.28,-34.52"/>
    </edge>
    <edge id="gneE2" from="gneJ1" to="gneJ2" priority="-1">
        <lane id="gneE2_0" index="0" speed="13.89" length="67.50" shape="-857.78,-140.57 -790.46,-145.46"/>
    </edge>
    <edge id="gneE3" from="gneJ2" to="node3" priority="-1">
        <lane id="gneE3_0" index="0" speed="13.89" length="51.08" shape="-788.74,-143.89 -787.85,-103.07"/>
    </edge>
    <edge id="gneE4" from="node3" to="gneJ3" priority="-1">
        <lane id="gneE4_0" index="0" speed="13.89" length="54.26" shape="-787.59,-88.87 -787.18,-45.95"/>
    </edge>
    <edge id="gneE5" from="gneJ3" to="gneJ4" priority="-1">
        <lane id="gneE5_0" index="0" speed="13.89" length="66.13" shape="-781.50,-40.31 -725.10,-41.68"/>
    </edge>
    <edge id="gneE6" from="gneJ4" to="node4" priority="-1">
        <lane id="gneE6_0" index="0" speed="13.89" length="50.44" shape="-723.54,-43.29 -723.65,-87.70"/>
    </edge>
    <edge id="gneE7" from="node7" to="gneJ3" priority="-1">
        <lane id="gneE7_0" index="0" speed="13.89" length="66.23" shape="-847.57,-43.23 -796.02,-40.52"/>
    </edge>
    <edge id="gneE8" from="node7" to="gneJ5" priority="-1">
        <lane id="gneE8_0" index="0" speed="13.89" length="49.75" shape="-853.26,-37.84 -853.34,5.28"/>
    </edge>
    <edge id="gneE9" from="gneJ5" to="gneJ6" priority="-1">
        <lane id="gneE9_0" index="0" speed="13.89" length="64.78" shape="-851.78,6.88 -791.58,8.22"/>
    </edge>

    <tlLogic id="node3" type="static" programID="0" offset="0">
        <phase duration="27" state="rGGrrr"/>
        <phase duration="3"  state="ryyrrr"/>
        <phase duration="27" state="rrrGGG"/>
        <phase duration="3"  state="rrryyy"/>
        <phase duration="27" state="Grrrrr"/>
        <phase duration="3"  state="yrrrrr"/>
    </tlLogic>

    <junction id="gneJ1" type="priority" x="-857.66" y="-138.97" incLanes="gneE1_0" intLanes="" shape="-860.86,-138.84 -857.66,-138.97 -857.89,-142.16 -859.59,-141.69 -860.18,-141.22 -860.58,-140.59 -860.81,-139.79">
        <request index="0" response="0" foes="0"/>
    </junction>
    <junction id="gneJ2" type="priority" x="-790.34" y="-143.86" incLanes="gneE2_0" intLanes="" shape="-790.34,-143.86 -787.14,-143.93 -787.55,-145.77 -788.04,-146.39 -788.70,-146.81 -789.54,-147.03 -790.57,-147.05">
        <request index="0" response="0" foes="0"/>
    </junction>
    <junction id="gneJ3" type="priority" x="-788.71" y="-38.53" incLanes="gneE11_0 gneE4_0 gneE7_0" intLanes="" shape="-791.88,-34.50 -788.68,-34.53 -787.89,-36.77 -786.89,-37.57 -785.49,-38.16 -783.68,-38.54 -781.46,-38.71 -781.54,-41.91 -783.77,-42.31 -784.55,-42.87 -785.11,-43.67 -785.46,-44.70 -785.58,-45.97 -791.98,-45.90 -792.40,-43.71 -792.95,-42.96 -793.72,-42.44 -794.72,-42.16 -795.94,-42.11 -796.11,-38.92 -793.77,-38.33 -792.95,-37.71 -792.36,-36.86 -792.00,-35.79">
        <request index="0" response="00000" foes="11000"/>
        <request index="1" response="00100" foes="10100"/>
        <request index="2" response="00000" foes="10010"/>
        <request index="3" response="00001" foes="00001"/>
        <request index="4" response="00111" foes="00111"/>
    </junction>
    <junction id="gneJ4" type="priority" x="-721.93" y="-40.16" incLanes="gneE5_0" intLanes="" shape="-721.94,-43.29 -725.14,-43.28 -725.06,-40.08 -723.32,-40.47 -722.71,-40.92 -722.28,-41.54 -722.02,-42.33">
        <request index="0" response="0" foes="0"/>
    </junction>
    <junction id="gneJ5" type="priority" x="-854.95" y="8.41" incLanes="gneE8_0" intLanes="" shape="-851.81,8.48 -851.74,5.28 -854.94,5.27 -854.60,7.02 -854.16,7.64 -853.56,8.09 -852.77,8.37">
        <request index="0" response="0" foes="0"/>
    </junction>
    <junction id="gneJ6" type="priority" x="-788.32" y="9.89" incLanes="gneE9_0" intLanes="" shape="-788.35,6.59 -791.55,6.62 -791.62,9.82 -789.79,9.49 -789.15,9.05 -788.70,8.42 -788.43,7.60">
        <request index="0" response="0" foes="0"/>
    </junction>
    <junction id="node0" type="dead_end" x="-1003.29" y="-89.24" incLanes="" intLanes="" shape="-1003.29,-89.24 -1003.36,-95.64"/>
    <junction id="node1" type="priority" x="-918.57" y="-90.13" incLanes="edge9_0 edge0_0 edge0_1" intLanes="" shape="-911.50,-90.36 -911.71,-96.75 -914.00,-97.12 -914.83,-97.65 -915.45,-98.40 -915.86,-99.38 -916.05,-100.59 -919.24,-100.38 -919.53,-98.24 -920.02,-97.48 -920.74,-96.94 -921.68,-96.60 -922.86,-96.49 -922.79,-90.09 -920.45,-89.68 -919.64,-89.15 -919.06,-88.41 -918.72,-87.44 -918.61,-86.26 -915.41,-86.23 -914.96,-88.47 -914.41,-89.26 -913.66,-89.84 -912.69,-90.21">
        <request index="0" response="01100" foes="01100"/>
        <request index="1" response="11100" foes="11100"/>
        <request index="2" response="00000" foes="00011"/>
        <request index="3" response="00000" foes="00011"/>
        <request index="4" response="00000" foes="00010"/>
    </junction>
    <junction id="node10" type="priority" x="-723.35" y="-153.15" incLanes="edge10_0" intLanes="" shape="-726.55,-153.08 -723.35,-153.15 -723.26,-156.35 -725.12,-156.03 -725.76,-155.58 -726.22,-154.94 -726.48,-154.11">
        <request index="0" response="0" foes="0"/>
    </junction>
    <junction id="node11" type="dead_end" x="-656.33" y="-151.33" incLanes="edge11_0" intLanes="" shape="-656.24,-154.53 -656.33,-151.33"/>
    <junction id="node2" type="priority" x="-855.80" y="-92.13" incLanes="edge7_0 edge1_0 edge1_1" intLanes="" shape="-858.92,-88.03 -852.52,-88.15 -852.12,-90.38 -851.58,-91.17 -850.81,-91.73 -849.82,-92.08 -848.60,-92.20 -848.66,-98.60 -850.93,-98.69 -852.79,-99.01 -854.25,-99.55 -855.30,-100.32 -855.96,-101.32 -856.21,-102.55 -859.41,-102.42 -859.77,-100.19 -860.29,-99.39 -861.05,-98.81 -862.03,-98.45 -863.25,-98.30 -863.05,-91.90 -860.79,-91.53 -859.99,-91.00 -859.41,-90.24 -859.06,-89.25">
        <request index="0" response="111100" foes="111100"/>
        <request index="1" response="111000" foes="111000"/>
        <request index="2" response="000000" foes="000001"/>
        <request index="3" response="000000" foes="000011"/>
        <request index="4" response="000000" foes="000011"/>
        <request index="5" response="000000" foes="000011"/>
    </junction>
    <junction id="node3" type="traffic_light" x="-789.23" y="-92.79" incLanes="-gneE4_0 gneE3_0 edge2_0 edge2_1" intLanes="" shape="-792.39,-88.83 -785.99,-88.89 -785.59,-91.02 -785.06,-91.76 -784.31,-92.28 -783.35,-92.59 -782.18,-92.68 -782.08,-99.07 -784.36,-99.55 -785.17,-100.12 -785.75,-100.90 -786.11,-101.89 -786.25,-103.11 -789.45,-103.04 -790.18,-100.89 -791.13,-100.13 -792.48,-99.59 -794.22,-99.25 -796.34,-99.12 -796.28,-92.72 -794.14,-92.30 -793.38,-91.77 -792.84,-91.01 -792.51,-90.03">
        <request index="0" response="111100" foes="111100"/>
        <request index="1" response="011000" foes="011000"/>
        <request index="2" response="111000" foes="111001"/>
        <request index="3" response="000000" foes="000111"/>
        <request index="4" response="000000" foes="000111"/>
        <request index="5" response="000000" foes="000101"/>
    </junction>
    <junction id="node4" type="priority" x="-722.06" y="-91.70" incLanes="gneE6_0 edge3_0 edge3_1" intLanes="" shape="-725.25,-87.69 -722.05,-87.70 -721.61,-89.93 -721.06,-90.71 -720.28,-91.28 -719.28,-91.62 -718.06,-91.75 -718.14,-98.15 -720.40,-98.58 -721.20,-99.14 -721.78,-99.94 -722.14,-100.96 -722.28,-102.22 -725.48,-102.15 -725.88,-99.94 -726.42,-99.17 -727.18,-98.63 -728.18,-98.31 -729.40,-98.22 -729.50,-91.82 -727.14,-91.33 -726.32,-90.75 -725.73,-89.96 -725.37,-88.93">
        <request index="0" response="11100" foes="11100"/>
        <request index="1" response="11000" foes="11000"/>
        <request index="2" response="00000" foes="00001"/>
        <request index="3" response="00000" foes="00011"/>
        <request index="4" response="00000" foes="00011"/>
    </junction>
    <junction id="node5" type="dead_end" x="-659.77" y="-92.44" incLanes="edge4_0 edge4_1" intLanes="" shape="-659.85,-98.84 -659.77,-92.44"/>
    <junction id="node6" type="priority" x="-919.07" y="-42.11" incLanes="edge5_0" intLanes="" shape="-915.84,-42.10 -915.84,-45.30 -919.04,-45.34 -918.70,-43.54 -918.25,-42.92 -917.63,-42.47 -916.83,-42.20">
        <request index="0" response="0" foes="0"/>
    </junction>
    <junction id="node7" type="priority" x="-854.85" y="-42.01" incLanes="-edge7_0 edge6_0" intLanes="" shape="-847.66,-41.63 -847.49,-44.83 -849.84,-45.43 -850.67,-46.07 -851.27,-46.93 -851.65,-48.02 -851.79,-49.34 -858.19,-49.21 -858.59,-46.99 -859.13,-46.22 -859.90,-45.66 -860.89,-45.33 -862.11,-45.22 -862.12,-42.02 -859.90,-41.90 -858.08,-41.55 -856.67,-40.97 -855.66,-40.16 -855.06,-39.12 -854.86,-37.85 -851.66,-37.84 -851.21,-40.04 -850.65,-40.79 -849.88,-41.30 -848.88,-41.58">
        <request index="0" response="00000" foes="01000"/>
        <request index="1" response="00000" foes="11000"/>
        <request index="2" response="00000" foes="00000"/>
        <request index="3" response="00011" foes="00011"/>
        <request index="4" response="00010" foes="00010"/>
    </junction>
    <junction id="node8" type="dead_end" x="-969.36" y="-131.89" incLanes="" intLanes="" shape="-969.36,-131.89 -969.36,-135.09"/>
    <junction id="node9" type="priority" x="-921.32" y="-131.95" incLanes="edge8_0" intLanes="" shape="-921.32,-131.95 -918.13,-132.16 -918.57,-133.82 -919.02,-134.40 -919.64,-134.82 -920.40,-135.07 -921.32,-135.15">
        <request index="0" response="0" foes="0"/>
    </junction>

    <connection from="-edge7" to="gneE7" fromLane="0" toLane="0" dir="r" state="M"/>
    <connection from="-edge7" to="gneE8" fromLane="0" toLane="0" dir="s" state="M"/>
    <connection from="-gneE4" to="edge3" fromLane="0" toLane="1" tl="node3" linkIndex="0" dir="l" state="o"/>
    <connection from="edge0" to="edge1" fromLane="0" toLane="0" dir="s" state="M"/>
    <connection from="edge0" to="edge1" fromLane="1" toLane="1" dir="s" state="M"/>
    <connection from="edge0" to="edge5" fromLane="1" toLane="0" dir="l" state="M"/>
    <connection from="edge1" to="gneE1" fromLane="0" toLane="0" dir="r" state="M"/>
    <connection from="edge1" to="edge2" fromLane="0" toLane="0" dir="s" state="M"/>
    <connection from="edge1" to="edge2" fromLane="1" toLane="1" dir="s" state="M"/>
    <connection from="edge1" to="-edge7" fromLane="1" toLane="0" dir="l" state="M"/>
    <connection from="edge10" to="edge11" fromLane="0" toLane="0" dir="l" state="M"/>
    <connection from="edge2" to="edge3" fromLane="0" toLane="0" tl="node3" linkIndex="3" dir="s" state="O"/>
    <connection from="edge2" to="edge3" fromLane="1" toLane="1" tl="node3" linkIndex="4" dir="s" state="O"/>
    <connection from="edge2" to="gneE4" fromLane="1" toLane="0" tl="node3" linkIndex="5" dir="l" state="O"/>
    <connection from="edge3" to="edge10" fromLane="0" toLane="0" dir="r" state="M"/>
    <connection from="edge3" to="edge4" fromLane="0" toLane="0" dir="s" state="M"/>
    <connection from="edge3" to="edge4" fromLane="1" toLane="1" dir="s" state="M"/>
    <connection from="edge5" to="edge6" fromLane="0" toLane="0" dir="r" state="M"/>
    <connection from="edge6" to="edge7" fromLane="0" toLane="0" dir="r" state="M"/>
    <connection from="edge6" to="gneE7" fromLane="0" toLane="0" dir="s" state="m"/>
    <connection from="edge6" to="gneE8" fromLane="0" toLane="0" dir="l" state="m"/>
    <connection from="edge7" to="gneE1" fromLane="0" toLane="0" dir="s" state="m"/>
    <connection from="edge7" to="edge2" fromLane="0" toLane="1" dir="l" state="m"/>
    <connection from="edge8" to="edge9" fromLane="0" toLane="0" dir="l" state="M"/>
    <connection from="edge9" to="edge1" fromLane="0" toLane="0" dir="r" state="m"/>
    <connection from="edge9" to="edge5" fromLane="0" toLane="0" dir="s" state="m"/>
    <connection from="gneE1" to="gneE2" fromLane="0" toLane="0" dir="l" state="M"/>
    <connection from="gneE11" to="-gneE4" fromLane="0" toLane="0" dir="s" state="M"/>
    <connection from="gneE11" to="gneE5" fromLane="0" toLane="0" dir="l" state="m"/>
    <connection from="gneE2" to="gneE3" fromLane="0" toLane="0" dir="l" state="M"/>
    <connection from="gneE3" to="edge3" fromLane="0" toLane="0" tl="node3" linkIndex="1" dir="r" state="o"/>
    <connection from="gneE3" to="gneE4" fromLane="0" toLane="0" tl="node3" linkIndex="2" dir="s" state="o"/>
    <connection from="gneE4" to="gneE5" fromLane="0" toLane="0" dir="r" state="M"/>
    <connection from="gneE5" to="gneE6" fromLane="0" toLane="0" dir="r" state="M"/>
    <connection from="gneE6" to="edge10" fromLane="0" toLane="0" dir="s" state="m"/>
    <connection from="gneE6" to="edge4" fromLane="0" toLane="1" dir="l" state="m"/>
    <connection from="gneE7" to="-gneE4" fromLane="0" toLane="0" dir="r" state="m"/>
    <connection from="gneE7" to="gneE5" fromLane="0" toLane="0" dir="s" state="m"/>
    <connection from="gneE8" to="gneE9" fromLane="0" toLane="0" dir="r" state="M"/>
    <connection from="gneE9" to="gneE11" fromLane="0" toLane="0" dir="r" state="M"/>

</net>
